<?xml version="1.0" encoding="UTF-8"?>
<routes>
	<vType accel="1.0" id="Car" decel="5.0" sigma="0.0" length="2.0" maxSpeed="100.0" />
	<vType accel="1.0" id="Bus" decel="5.0" sigma="0.0" length="12.0" maxSpeed="1.0" />



	<!-- Route 0 -->
	<route id="route0" edges="in 2to3 3to4"/>
    <!-- Route 1 -->
	<route id="route1" edges="in 2to3 3to4"/>
    
    <!-- Route 2 -->
    <route id="route2" edges="intramp 2to3"/>


	<vehicle id="veh0" type="Car" route="route0" depart="0" color="1,1,0" departLane="0"/>
	<vehicle id="veh1" type="Car" route="route0" depart="1" color="1,1,0" departLane="1"/>
	<vehicle id="veh2" type="Car" route="route0" depart="2" color="1,1,0" departLane="2"/>
	<vehicle id="veh3" type="Car" route="route0" depart="3" color="1,1,0" departLane="0"/>
	<vehicle id="veh4" type="Car" route="route0" depart="4" color="1,1,0" departLane="1"/>
	<vehicle id="veh5" type="Car" route="route0" depart="5" color="1,1,0" departLane="2"/>
	<vehicle id="veh6" type="Car" route="route0" depart="6" color="1,1,0" departLane="0"/>
	<vehicle id="veh7" type="Car" route="route0" depart="7" color="1,1,0" departLane="1"/>
	<vehicle id="veh8" type="Car" route="route0" depart="8" color="1,1,0" departLane="2"/>
	<vehicle id="veh9" type="Car" route="route0" depart="9" color="1,1,0" departLane="0"/>
	<vehicle id="veh10" type="Car" route="route0" depart="10" color="1,1,0" departLane="1"/>
	<vehicle id="veh11" type="Car" route="route0" depart="11" color="1,1,0" departLane="2"/>
	<vehicle id="veh12" type="Car" route="route0" depart="12" color="1,1,0" departLane="0"/>
	<vehicle id="veh13" type="Car" route="route0" depart="13" color="1,1,0" departLane="1"/>
	<vehicle id="veh14" type="Car" route="route0" depart="14" color="1,1,0" departLane="2"/>
	<vehicle id="veh15" type="Car" route="route0" depart="15" color="1,1,0" departLane="0"/>
	<vehicle id="veh16" type="Car" route="route0" depart="16" color="1,1,0" departLane="1"/>
	<vehicle id="veh17" type="Car" route="route0" depart="17" color="1,1,0" departLane="2"/>
	<vehicle id="veh18" type="Car" route="route0" depart="18" color="1,1,0" departLane="0"/>
	<vehicle id="veh19" type="Car" route="route0" depart="19" color="1,1,0" departLane="1"/>
	<vehicle id="veh20" type="Car" route="route0" depart="20" color="1,1,0" departLane="2"/>
	<vehicle id="veh21" type="Car" route="route0" depart="21" color="1,1,0" departLane="0"/>
	<vehicle id="veh22" type="Car" route="route0" depart="22" color="1,1,0" departLane="1"/>
	<vehicle id="veh23" type="Car" route="route0" depart="23" color="1,1,0" departLane="2"/>
	<vehicle id="veh24" type="Car" route="route0" depart="24" color="1,1,0" departLane="0"/>
	<vehicle id="veh25" type="Car" route="route0" depart="25" color="1,1,0" departLane="1"/>
	<vehicle id="veh26" type="Car" route="route0" depart="26" color="1,1,0" departLane="2"/>
	<vehicle id="veh27" type="Car" route="route0" depart="27" color="1,1,0" departLane="0"/>
	<vehicle id="veh28" type="Car" route="route0" depart="28" color="1,1,0" departLane="1"/>
	<vehicle id="veh29" type="Car" route="route0" depart="29" color="1,1,0" departLane="2"/>
	<vehicle id="veh30" type="Car" route="route0" depart="30" color="1,1,0" departLane="0"/>
	<vehicle id="veh31" type="Car" route="route0" depart="31" color="1,1,0" departLane="1"/>
	<vehicle id="veh32" type="Car" route="route0" depart="32" color="1,1,0" departLane="2"/>
	<vehicle id="veh33" type="Car" route="route0" depart="33" color="1,1,0" departLane="0"/>
	<vehicle id="veh34" type="Car" route="route0" depart="34" color="1,1,0" departLane="1"/>
	<vehicle id="veh35" type="Car" route="route0" depart="35" color="1,1,0" departLane="2"/>
	<vehicle id="veh36" type="Car" route="route0" depart="36" color="1,1,0" departLane="0"/>
	<vehicle id="veh37" type="Car" route="route0" depart="37" color="1,1,0" departLane="1"/>
	<vehicle id="veh38" type="Car" route="route0" depart="38" color="1,1,0" departLane="2"/>
	<vehicle id="veh39" type="Car" route="route0" depart="39" color="1,1,0" departLane="0"/>
	<vehicle id="veh40" type="Car" route="route0" depart="40" color="1,1,0" departLane="1"/>
	<vehicle id="veh41" type="Car" route="route0" depart="41" color="1,1,0" departLane="2"/>
	<vehicle id="veh42" type="Car" route="route0" depart="42" color="1,1,0" departLane="0"/>
	<vehicle id="veh43" type="Car" route="route0" depart="43" color="1,1,0" departLane="1"/>
	<vehicle id="veh44" type="Car" route="route0" depart="44" color="1,1,0" departLane="2"/>
	<vehicle id="veh45" type="Car" route="route0" depart="45" color="1,1,0" departLane="0"/>
	<vehicle id="veh46" type="Car" route="route0" depart="46" color="1,1,0" departLane="1"/>
	<vehicle id="veh47" type="Car" route="route0" depart="47" color="1,1,0" departLane="2"/>
	<vehicle id="veh48" type="Car" route="route0" depart="48" color="1,1,0" departLane="0"/>
	<vehicle id="veh49" type="Car" route="route0" depart="49" color="1,1,0" departLane="1"/>
	<vehicle id="veh50" type="Car" route="route0" depart="50" color="1,1,0" departLane="2"/>
	<vehicle id="veh51" type="Car" route="route0" depart="51" color="1,1,0" departLane="0"/>
	<vehicle id="veh52" type="Car" route="route0" depart="52" color="1,1,0" departLane="1"/>
	<vehicle id="veh53" type="Car" route="route0" depart="53" color="1,1,0" departLane="2"/>
	<vehicle id="veh54" type="Car" route="route0" depart="54" color="1,1,0" departLane="0"/>
	<vehicle id="veh55" type="Car" route="route0" depart="55" color="1,1,0" departLane="1"/>
	<vehicle id="veh56" type="Car" route="route0" depart="56" color="1,1,0" departLane="2"/>
	<vehicle id="veh57" type="Car" route="route0" depart="57" color="1,1,0" departLane="0"/>
	<vehicle id="veh58" type="Car" route="route0" depart="58" color="1,1,0" departLane="1"/>
	<vehicle id="veh59" type="Car" route="route0" depart="59" color="1,1,0" departLane="2"/>
	<vehicle id="veh60" type="Car" route="route0" depart="60" color="1,1,0" departLane="0"/>
	<vehicle id="veh61" type="Car" route="route0" depart="61" color="1,1,0" departLane="1"/>
	<vehicle id="veh62" type="Car" route="route0" depart="62" color="1,1,0" departLane="2"/>
	<vehicle id="veh63" type="Car" route="route0" depart="63" color="1,1,0" departLane="0"/>
	<vehicle id="veh64" type="Car" route="route0" depart="64" color="1,1,0" departLane="1"/>
	<vehicle id="veh65" type="Car" route="route0" depart="65" color="1,1,0" departLane="2"/>
	<vehicle id="veh66" type="Car" route="route0" depart="66" color="1,1,0" departLane="0"/>
	<vehicle id="veh67" type="Car" route="route0" depart="67" color="1,1,0" departLane="1"/>
	<vehicle id="veh68" type="Car" route="route0" depart="68" color="1,1,0" departLane="2"/>
	<vehicle id="veh69" type="Car" route="route0" depart="69" color="1,1,0" departLane="0"/>
	<vehicle id="veh70" type="Car" route="route0" depart="70" color="1,1,0" departLane="1"/>
	<vehicle id="veh71" type="Car" route="route0" depart="71" color="1,1,0" departLane="2"/>
	<vehicle id="veh72" type="Car" route="route0" depart="72" color="1,1,0" departLane="0"/>
	<vehicle id="veh73" type="Car" route="route0" depart="73" color="1,1,0" departLane="1"/>
	<vehicle id="veh74" type="Car" route="route0" depart="74" color="1,1,0" departLane="2"/>
	<vehicle id="veh75" type="Car" route="route0" depart="75" color="1,1,0" departLane="0"/>
	<vehicle id="veh76" type="Car" route="route0" depart="76" color="1,1,0" departLane="1"/>
	<vehicle id="veh77" type="Car" route="route0" depart="77" color="1,1,0" departLane="2"/>
	<vehicle id="veh78" type="Car" route="route0" depart="78" color="1,1,0" departLane="0"/>
	<vehicle id="veh79" type="Car" route="route0" depart="79" color="1,1,0" departLane="1"/>
	<vehicle id="veh80" type="Car" route="route0" depart="80" color="1,1,0" departLane="2"/>
	<vehicle id="veh81" type="Car" route="route0" depart="81" color="1,1,0" departLane="0"/>
	<vehicle id="veh82" type="Car" route="route0" depart="82" color="1,1,0" departLane="1"/>
	<vehicle id="veh83" type="Car" route="route0" depart="83" color="1,1,0" departLane="2"/>
	<vehicle id="veh84" type="Car" route="route0" depart="84" color="1,1,0" departLane="0"/>
	<vehicle id="veh85" type="Car" route="route0" depart="85" color="1,1,0" departLane="1"/>
	<vehicle id="veh86" type="Car" route="route0" depart="86" color="1,1,0" departLane="2"/>
	<vehicle id="veh87" type="Car" route="route0" depart="87" color="1,1,0" departLane="0"/>
	<vehicle id="veh88" type="Car" route="route0" depart="88" color="1,1,0" departLane="1"/>
	<vehicle id="veh89" type="Car" route="route0" depart="89" color="1,1,0" departLane="2"/>
	<vehicle id="veh90" type="Car" route="route0" depart="90" color="1,1,0" departLane="0"/>
	<vehicle id="veh91" type="Car" route="route0" depart="91" color="1,1,0" departLane="1"/>
	<vehicle id="veh92" type="Car" route="route0" depart="92" color="1,1,0" departLane="2"/>
	<vehicle id="veh93" type="Car" route="route0" depart="93" color="1,1,0" departLane="0"/>
	<vehicle id="veh94" type="Car" route="route0" depart="94" color="1,1,0" departLane="1"/>
	<vehicle id="veh95" type="Car" route="route0" depart="95" color="1,1,0" departLane="2"/>
	<vehicle id="veh96" type="Car" route="route0" depart="96" color="1,1,0" departLane="0"/>
	<vehicle id="veh97" type="Car" route="route0" depart="97" color="1,1,0" departLane="1"/>
	<vehicle id="veh98" type="Car" route="route0" depart="98" color="1,1,0" departLane="2"/>
	<vehicle id="veh99" type="Car" route="route0" depart="99" color="1,1,0" departLane="0"/>

	<vehicle id="veh100" type="Car" route="route1" depart="100" color="1,1,0" departLane="1"/>
    <vehicle id="veh200" type="Car" route="route2" depart="100" color="1,1,0" departLane="0"/>
	<vehicle id="veh101" type="Car" route="route1" depart="101" color="1,1,0" departLane="2"/>
    <vehicle id="veh201" type="Car" route="route2" depart="101" color="1,1,0" departLane="0"/>
	<vehicle id="veh102" type="Car" route="route1" depart="102" color="1,1,0" departLane="0"/>
    <vehicle id="veh202" type="Car" route="route2" depart="102" color="1,1,0" departLane="0"/>
	<vehicle id="veh103" type="Car" route="route1" depart="103" color="1,1,0" departLane="1"/>
    <vehicle id="veh203" type="Car" route="route2" depart="103" color="1,1,0" departLane="0"/>
	<vehicle id="veh104" type="Car" route="route1" depart="104" color="1,1,0" departLane="2"/>
    <vehicle id="veh204" type="Car" route="route2" depart="104" color="1,1,0" departLane="0"/>
	<vehicle id="veh105" type="Car" route="route1" depart="105" color="1,1,0" departLane="0"/>
    <vehicle id="veh205" type="Car" route="route2" depart="105" color="1,1,0" departLane="0"/>
	<vehicle id="veh106" type="Car" route="route1" depart="106" color="1,1,0" departLane="1"/>
    <vehicle id="veh206" type="Car" route="route2" depart="106" color="1,1,0" departLane="0"/>
	<vehicle id="veh107" type="Car" route="route1" depart="107" color="1,1,0" departLane="2"/>
    <vehicle id="veh207" type="Car" route="route2" depart="107" color="1,1,0" departLane="0"/>
	<vehicle id="veh108" type="Car" route="route1" depart="108" color="1,1,0" departLane="0"/>
    <vehicle id="veh208" type="Car" route="route2" depart="108" color="1,1,0" departLane="0"/>
	<vehicle id="veh109" type="Car" route="route1" depart="109" color="1,1,0" departLane="1"/>
    <vehicle id="veh209" type="Car" route="route2" depart="109" color="1,1,0" departLane="0"/>
	<vehicle id="veh110" type="Car" route="route1" depart="110" color="1,1,0" departLane="2"/>
    <vehicle id="veh210" type="Car" route="route2" depart="110" color="1,1,0" departLane="0"/>
	<vehicle id="veh111" type="Car" route="route1" depart="111" color="1,1,0" departLane="0"/>
    <vehicle id="veh211" type="Car" route="route2" depart="111" color="1,1,0" departLane="0"/>
	<vehicle id="veh212" type="Car" route="route2" depart="112" color="1,1,0" departLane="0"/>
	<vehicle id="veh112" type="Car" route="route1" depart="112" color="1,1,0" departLane="1"/>
	<vehicle id="veh113" type="Car" route="route1" depart="113" color="1,1,0" departLane="2"/>
	<vehicle id="veh213" type="Car" route="route2" depart="113" color="1,1,0" departLane="0"/>
    <vehicle id="veh114" type="Car" route="route1" depart="114" color="1,1,0" departLane="0"/>
	<vehicle id="veh214" type="Car" route="route2" depart="114" color="1,1,0" departLane="0"/>
    <vehicle id="veh115" type="Car" route="route1" depart="115" color="1,1,0" departLane="1"/>
	<vehicle id="veh116" type="Car" route="route1" depart="116" color="1,1,0" departLane="2"/>
    <vehicle id="veh216" type="Car" route="route2" depart="116" color="1,1,0" departLane="0"/>
	<vehicle id="veh117" type="Car" route="route1" depart="117" color="1,1,0" departLane="0"/>
    <vehicle id="veh217" type="Car" route="route2" depart="117" color="1,1,0" departLane="0"/>
	<vehicle id="veh118" type="Car" route="route1" depart="118" color="1,1,0" departLane="1"/>
	<vehicle id="veh218" type="Car" route="route2" depart="118" color="1,1,0" departLane="0"/>
    <vehicle id="veh119" type="Car" route="route1" depart="119" color="1,1,0" departLane="2"/>
    <vehicle id="veh219" type="Car" route="route2" depart="119" color="1,1,0" departLane="0"/>
	<vehicle id="veh120" type="Car" route="route1" depart="120" color="1,1,0" departLane="0"/>
    <vehicle id="veh220" type="Car" route="route2" depart="120" color="1,1,0" departLane="0"/>
	<vehicle id="veh121" type="Car" route="route1" depart="121" color="1,1,0" departLane="1"/>
    <vehicle id="veh221" type="Car" route="route2" depart="121" color="1,1,0" departLane="0"/>
	<vehicle id="veh122" type="Car" route="route1" depart="122" color="1,1,0" departLane="2"/>
    <vehicle id="veh222" type="Car" route="route2" depart="122" color="1,1,0" departLane="0"/>
	<vehicle id="veh123" type="Car" route="route1" depart="123" color="1,1,0" departLane="0"/>
    <vehicle id="veh223" type="Car" route="route2" depart="123" color="1,1,0" departLane="0"/>
	<vehicle id="veh124" type="Car" route="route1" depart="124" color="1,1,0" departLane="1"/>
	<vehicle id="veh224" type="Car" route="route2" depart="124" color="1,1,0" departLane="0"/>
	<vehicle id="veh125" type="Car" route="route1" depart="125" color="1,1,0" departLane="2"/>
	<vehicle id="veh225" type="Car" route="route2" depart="125" color="1,1,0" departLane="0"/>
	<vehicle id="veh126" type="Car" route="route1" depart="126" color="1,1,0" departLane="0"/>
	<vehicle id="veh226" type="Car" route="route2" depart="126" color="1,1,0" departLane="0"/>
	<vehicle id="veh127" type="Car" route="route1" depart="127" color="1,1,0" departLane="1"/>
	<vehicle id="veh227" type="Car" route="route2" depart="127" color="1,1,0" departLane="0"/>
	<vehicle id="veh128" type="Car" route="route1" depart="128" color="1,1,0" departLane="2"/>
	<vehicle id="veh228" type="Car" route="route2" depart="128" color="1,1,0" departLane="0"/>
	<vehicle id="veh129" type="Car" route="route1" depart="129" color="1,1,0" departLane="0"/>
	<vehicle id="veh229" type="Car" route="route2" depart="129" color="1,1,0" departLane="0"/>
	<vehicle id="veh130" type="Car" route="route1" depart="130" color="1,1,0" departLane="1"/>
	<vehicle id="veh230" type="Car" route="route2" depart="130" color="1,1,0" departLane="0"/>
	<vehicle id="veh131" type="Car" route="route1" depart="131" color="1,1,0" departLane="2"/>
	<vehicle id="veh231" type="Car" route="route2" depart="131" color="1,1,0" departLane="0"/>
	<vehicle id="veh132" type="Car" route="route1" depart="132" color="1,1,0" departLane="0"/>
	<vehicle id="veh232" type="Car" route="route2" depart="132" color="1,1,0" departLane="0"/>
	<vehicle id="veh133" type="Car" route="route1" depart="133" color="1,1,0" departLane="1"/>
	<vehicle id="veh233" type="Car" route="route2" depart="133" color="1,1,0" departLane="0"/>
	<vehicle id="veh134" type="Car" route="route1" depart="134" color="1,1,0" departLane="2"/>
	<vehicle id="veh234" type="Car" route="route2" depart="134" color="1,1,0" departLane="0"/>
	<vehicle id="veh135" type="Car" route="route1" depart="135" color="1,1,0" departLane="0"/>
	<vehicle id="veh235" type="Car" route="route2" depart="135" color="1,1,0" departLane="0"/>
	<vehicle id="veh136" type="Car" route="route1" depart="136" color="1,1,0" departLane="1"/>
	<vehicle id="veh236" type="Car" route="route2" depart="136" color="1,1,0" departLane="0"/>
	<vehicle id="veh137" type="Car" route="route1" depart="137" color="1,1,0" departLane="2"/>
	<vehicle id="veh237" type="Car" route="route2" depart="137" color="1,1,0" departLane="0"/>
	<vehicle id="veh138" type="Car" route="route1" depart="138" color="1,1,0" departLane="0"/>
	<vehicle id="veh238" type="Car" route="route2" depart="138" color="1,1,0" departLane="0"/>
	<vehicle id="veh139" type="Car" route="route1" depart="139" color="1,1,0" departLane="1"/>
	<vehicle id="veh239" type="Car" route="route2" depart="139" color="1,1,0" departLane="0"/>
	<vehicle id="veh140" type="Car" route="route1" depart="140" color="1,1,0" departLane="2"/>
	<vehicle id="veh240" type="Car" route="route2" depart="140" color="1,1,0" departLane="0"/>
	<vehicle id="veh141" type="Car" route="route1" depart="141" color="1,1,0" departLane="0"/>
	<vehicle id="veh241" type="Car" route="route2" depart="141" color="1,1,0" departLane="0"/>
	<vehicle id="veh142" type="Car" route="route1" depart="142" color="1,1,0" departLane="1"/>
	<vehicle id="veh242" type="Car" route="route2" depart="142" color="1,1,0" departLane="0"/>
	<vehicle id="veh143" type="Car" route="route1" depart="143" color="1,1,0" departLane="2"/>
	<vehicle id="veh243" type="Car" route="route2" depart="143" color="1,1,0" departLane="0"/>
	<vehicle id="veh144" type="Car" route="route1" depart="144" color="1,1,0" departLane="0"/>
	<vehicle id="veh244" type="Car" route="route2" depart="144" color="1,1,0" departLane="0"/>
	<vehicle id="veh145" type="Car" route="route1" depart="145" color="1,1,0" departLane="1"/>
	<vehicle id="veh245" type="Car" route="route2" depart="145" color="1,1,0" departLane="0"/>
	<vehicle id="veh146" type="Car" route="route1" depart="146" color="1,1,0" departLane="2"/>
    <vehicle id="veh246" type="Car" route="route2" depart="146" color="1,1,0" departLane="0"/>
	<vehicle id="veh147" type="Car" route="route1" depart="147" color="1,1,0" departLane="0"/>
	<vehicle id="veh247" type="Car" route="route2" depart="147" color="1,1,0" departLane="0"/>
	<vehicle id="veh148" type="Car" route="route1" depart="148" color="1,1,0" departLane="1"/>
	<vehicle id="veh248" type="Car" route="route2" depart="148" color="1,1,0" departLane="0"/>
	<vehicle id="veh149" type="Car" route="route1" depart="149" color="1,1,0" departLane="2"/>
	<vehicle id="veh249" type="Car" route="route2" depart="149" color="1,1,0" departLane="0"/>
	<vehicle id="veh150" type="Car" route="route1" depart="150" color="1,1,0" departLane="0"/>
	<vehicle id="veh250" type="Car" route="route2" depart="150" color="1,1,0" departLane="0"/>
	<vehicle id="veh151" type="Car" route="route1" depart="151" color="1,1,0" departLane="1"/>
	<vehicle id="veh251" type="Car" route="route2" depart="151" color="1,1,0" departLane="0"/>
	<vehicle id="veh152" type="Car" route="route1" depart="152" color="1,1,0" departLane="2"/>
    <vehicle id="veh252" type="Car" route="route2" depart="152" color="1,1,0" departLane="0"/>
	<vehicle id="veh153" type="Car" route="route1" depart="153" color="1,1,0" departLane="0"/>
    <vehicle id="veh253" type="Car" route="route2" depart="153" color="1,1,0" departLane="0"/>
	<vehicle id="veh154" type="Car" route="route1" depart="154" color="1,1,0" departLane="1"/>
    <vehicle id="veh254" type="Car" route="route2" depart="154" color="1,1,0" departLane="0"/>
	<vehicle id="veh155" type="Car" route="route1" depart="155" color="1,1,0" departLane="2"/>
    <vehicle id="veh255" type="Car" route="route2" depart="155" color="1,1,0" departLane="0"/>
	<vehicle id="veh156" type="Car" route="route1" depart="156" color="1,1,0" departLane="0"/>
    <vehicle id="veh256" type="Car" route="route2" depart="156" color="1,1,0" departLane="0"/>
	<vehicle id="veh157" type="Car" route="route1" depart="157" color="1,1,0" departLane="1"/>
	<vehicle id="veh257" type="Car" route="route2" depart="157" color="1,1,0" departLane="0"/>
	<vehicle id="veh158" type="Car" route="route1" depart="158" color="1,1,0" departLane="2"/>
    <vehicle id="veh258" type="Car" route="route2" depart="158" color="1,1,0" departLane="0"/>
	<vehicle id="veh159" type="Car" route="route1" depart="159" color="1,1,0" departLane="0"/>
	<vehicle id="veh259" type="Car" route="route2" depart="159" color="1,1,0" departLane="0"/>
	<vehicle id="veh160" type="Car" route="route1" depart="160" color="1,1,0" departLane="1"/>
	<vehicle id="veh260" type="Car" route="route2" depart="160" color="1,1,0" departLane="0"/>
	<vehicle id="veh161" type="Car" route="route1" depart="161" color="1,1,0" departLane="2"/>
	<vehicle id="veh261" type="Car" route="route2" depart="161" color="1,1,0" departLane="0"/>
	<vehicle id="veh162" type="Car" route="route1" depart="162" color="1,1,0" departLane="0"/>
	<vehicle id="veh262" type="Car" route="route2" depart="162" color="1,1,0" departLane="0"/>
	<vehicle id="veh163" type="Car" route="route1" depart="163" color="1,1,0" departLane="1"/>
    <vehicle id="veh263" type="Car" route="route2" depart="163" color="1,1,0" departLane="0"/>
	<vehicle id="veh164" type="Car" route="route1" depart="164" color="1,1,0" departLane="2"/>
	<vehicle id="veh264" type="Car" route="route2" depart="164" color="1,1,0" departLane="0"/>
	<vehicle id="veh165" type="Car" route="route1" depart="165" color="1,1,0" departLane="0"/>
	<vehicle id="veh265" type="Car" route="route2" depart="165" color="1,1,0" departLane="0"/>
	<vehicle id="veh166" type="Car" route="route1" depart="166" color="1,1,0" departLane="1"/>
	<vehicle id="veh266" type="Car" route="route2" depart="166" color="1,1,0" departLane="0"/>
	<vehicle id="veh167" type="Car" route="route1" depart="167" color="1,1,0" departLane="2"/>
	<vehicle id="veh267" type="Car" route="route2" depart="167" color="1,1,0" departLane="0"/>
	<vehicle id="veh168" type="Car" route="route1" depart="168" color="1,1,0" departLane="0"/>
    <vehicle id="veh268" type="Car" route="route2" depart="168" color="1,1,0" departLane="0"/>
	<vehicle id="veh169" type="Car" route="route1" depart="169" color="1,1,0" departLane="1"/>
	<vehicle id="veh269" type="Car" route="route2" depart="169" color="1,1,0" departLane="0"/>
	<vehicle id="veh170" type="Car" route="route1" depart="170" color="1,1,0" departLane="2"/>
	<vehicle id="veh270" type="Car" route="route2" depart="170" color="1,1,0" departLane="0"/>
	<vehicle id="veh171" type="Car" route="route1" depart="171" color="1,1,0" departLane="0"/>
    <vehicle id="veh271" type="Car" route="route2" depart="171" color="1,1,0" departLane="0"/>
	<vehicle id="veh172" type="Car" route="route1" depart="172" color="1,1,0" departLane="1"/>
    <vehicle id="veh272" type="Car" route="route2" depart="172" color="1,1,0" departLane="0"/>
	<vehicle id="veh173" type="Car" route="route1" depart="173" color="1,1,0" departLane="2"/>
	<vehicle id="veh273" type="Car" route="route2" depart="173" color="1,1,0" departLane="0"/>
	<vehicle id="veh174" type="Car" route="route1" depart="174" color="1,1,0" departLane="0"/>
    <vehicle id="veh274" type="Car" route="route2" depart="174" color="1,1,0" departLane="0"/>
	<vehicle id="veh175" type="Car" route="route1" depart="175" color="1,1,0" departLane="1"/>
    <vehicle id="veh275" type="Car" route="route2" depart="175" color="1,1,0" departLane="0"/>
	<vehicle id="veh176" type="Car" route="route1" depart="176" color="1,1,0" departLane="2"/>
    <vehicle id="veh276" type="Car" route="route2" depart="176" color="1,1,0" departLane="0"/>
	<vehicle id="veh177" type="Car" route="route1" depart="177" color="1,1,0" departLane="0"/>
    <vehicle id="veh277" type="Car" route="route2" depart="177" color="1,1,0" departLane="0"/>
	<vehicle id="veh178" type="Car" route="route1" depart="178" color="1,1,0" departLane="1"/>
	<vehicle id="veh278" type="Car" route="route2" depart="178" color="1,1,0" departLane="0"/>
    <vehicle id="veh179" type="Car" route="route1" depart="179" color="1,1,0" departLane="2"/>
    <vehicle id="veh279" type="Car" route="route2" depart="179" color="1,1,0" departLane="0"/>
	<vehicle id="veh180" type="Car" route="route1" depart="180" color="1,1,0" departLane="0"/>
	<vehicle id="veh280" type="Car" route="route2" depart="180" color="1,1,0" departLane="0"/>
	<vehicle id="veh181" type="Car" route="route1" depart="181" color="1,1,0" departLane="1"/>
	<vehicle id="veh281" type="Car" route="route2" depart="181" color="1,1,0" departLane="0"/>
	<vehicle id="veh182" type="Car" route="route1" depart="182" color="1,1,0" departLane="2"/>
	<vehicle id="veh282" type="Car" route="route2" depart="182" color="1,1,0" departLane="0"/>
	<vehicle id="veh183" type="Car" route="route1" depart="183" color="1,1,0" departLane="0"/>
	<vehicle id="veh283" type="Car" route="route2" depart="183" color="1,1,0" departLane="0"/>
	<vehicle id="veh184" type="Car" route="route1" depart="184" color="1,1,0" departLane="1"/>
	<vehicle id="veh284" type="Car" route="route2" depart="184" color="1,1,0" departLane="0"/>
	<vehicle id="veh185" type="Car" route="route1" depart="185" color="1,1,0" departLane="2"/>
	<vehicle id="veh285" type="Car" route="route2" depart="185" color="1,1,0" departLane="0"/>
	<vehicle id="veh186" type="Car" route="route1" depart="186" color="1,1,0" departLane="0"/>
	<vehicle id="veh286" type="Car" route="route2" depart="186" color="1,1,0" departLane="0"/>
	<vehicle id="veh187" type="Car" route="route1" depart="187" color="1,1,0" departLane="1"/>
	<vehicle id="veh287" type="Car" route="route2" depart="187" color="1,1,0" departLane="0"/>
	<vehicle id="veh188" type="Car" route="route1" depart="188" color="1,1,0" departLane="2"/>
	<vehicle id="veh288" type="Car" route="route2" depart="188" color="1,1,0" departLane="0"/>  
    <vehicle id="veh189" type="Car" route="route1" depart="189" color="1,1,0" departLane="0"/>
	<vehicle id="veh289" type="Car" route="route2" depart="189" color="1,1,0" departLane="0"/>
	<vehicle id="veh190" type="Car" route="route1" depart="190" color="1,1,0" departLane="1"/>
	<vehicle id="veh290" type="Car" route="route2" depart="190" color="1,1,0" departLane="0"/>
	<vehicle id="veh191" type="Car" route="route1" depart="191" color="1,1,0" departLane="2"/>
	<vehicle id="veh291" type="Car" route="route2" depart="191" color="1,1,0" departLane="0"/>
    <vehicle id="veh192" type="Car" route="route1" depart="192" color="1,1,0" departLane="0"/>
	<vehicle id="veh292" type="Car" route="route2" depart="192" color="1,1,0" departLane="0"/>
	<vehicle id="veh193" type="Car" route="route1" depart="193" color="1,1,0" departLane="1"/>
    <vehicle id="veh293" type="Car" route="route2" depart="193" color="1,1,0" departLane="0"/>
	<vehicle id="veh194" type="Car" route="route1" depart="194" color="1,1,0" departLane="2"/>
	<vehicle id="veh294" type="Car" route="route2" depart="194" color="1,1,0" departLane="0"/>
	<vehicle id="veh195" type="Car" route="route1" depart="195" color="1,1,0" departLane="0"/>
	<vehicle id="veh295" type="Car" route="route2" depart="195" color="1,1,0" departLane="0"/>
	<vehicle id="veh196" type="Car" route="route1" depart="196" color="1,1,0" departLane="1"/>
	<vehicle id="veh296" type="Car" route="route2" depart="196" color="1,1,0" departLane="0"/>
    <vehicle id="veh197" type="Car" route="route1" depart="197" color="1,1,0" departLane="2"/>
	<vehicle id="veh297" type="Car" route="route2" depart="197" color="1,1,0" departLane="0"/>
	<vehicle id="veh198" type="Car" route="route1" depart="198" color="1,1,0" departLane="0"/>
	<vehicle id="veh298" type="Car" route="route2" depart="198" color="1,1,0" departLane="0"/>
    <vehicle id="veh199" type="Car" route="route1" depart="199" color="1,1,0" departLane="1"/>
	<vehicle id="veh299" type="Car" route="route2" depart="199" color="1,1,0" departLane="0"/>



	

	

	
</routes>