<?xml version="1.0" encoding="UTF-8"?>

<!-- generated on 2023-10-21 11:35:51 by Eclipse SUMO netedit Version 1.18.0
<configuration xmlns:xsi="http://www.w3.org/2001/XMLSchema-instance" xsi:noNamespaceSchemaLocation="http://sumo.dlr.de/xsd/neteditConfiguration.xsd">

    <input>
        <sumocfg-file value="/Users/cheimamezdour/Projects/RLOC-SUMO/Network.sumocfg"/>
        <route-files value="/Users/cheimamezdour/Projects/RLOC-SUMO/Network.rou.xml"/>
        <sumo-net-file value="/Users/cheimamezdour/Projects/RLOC-SUMO/Network.net.xml"/>
    </input>

    <output>
        <output-file value="/Users/cheimamezdour/Projects/RLOC-SUMO/Network.net.xml"/>
    </output>

    <processing>
        <offset.disable-normalization value="true"/>
    </processing>

    <junctions>
        <no-turnarounds value="true"/>
    </junctions>

    <netedit>
        <new-network value="false"/>
    </netedit>

</configuration>
-->

<net version="1.16" junctionCornerDetail="5" limitTurnSpeed="5.50" xmlns:xsi="http://www.w3.org/2001/XMLSchema-instance" xsi:noNamespaceSchemaLocation="http://sumo.dlr.de/xsd/net_file.xsd">

    <location netOffset="0.00,0.00" convBoundary="-57.29,3.82,100.31,55.75" origBoundary="10000000000.00,10000000000.00,-10000000000.00,-10000000000.00" projParameter="!"/>

    <edge id="E0" from="J2" to="J3" priority="-1">
        <lane id="E0_0" index="0" speed="20.00" length="157.60" width="10.00" shape="-57.29,30.75 100.31,30.75"/>
        <lane id="E0_1" index="1" speed="20.00" length="157.60" width="10.00" shape="-57.29,40.75 100.31,40.75"/>
        <lane id="E0_2" index="2" speed="20.00" length="157.60" width="10.00" shape="-57.29,50.75 100.31,50.75"/>
    </edge>
    <edge id="E1" from="J7" to="J8" priority="-1">
        <lane id="E1_0" index="0" disallow="pedestrian" speed="20.00" length="83.87" width="10.00" shape="-51.60,-0.81 26.03,30.93"/>
    </edge>

    <junction id="J2" type="dead_end" x="-57.29" y="55.75" incLanes="" intLanes="" shape="-57.29,55.75 -57.29,25.75"/>
    <junction id="J3" type="dead_end" x="100.31" y="55.75" incLanes="E0_0 E0_1 E0_2" intLanes="" shape="100.31,25.75 100.31,55.75"/>
    <junction id="J7" type="dead_end" x="-53.49" y="3.82" incLanes="" intLanes="" shape="-53.49,3.82 -49.71,-5.44"/>
    <junction id="J8" type="dead_end" x="24.14" y="35.56" incLanes="E1_0" intLanes="" shape="27.92,26.30 24.14,35.56"/>

</net>
