<?xml version="1.0" encoding="UTF-8"?>

<!-- generated on 2023-10-21 11:20:03 by Eclipse SUMO netedit Version 1.18.0
-->

<routes xmlns:xsi="http://www.w3.org/2001/XMLSchema-instance" xsi:noNamespaceSchemaLocation="http://sumo.dlr.de/xsd/routes_file.xsd">
    <!-- Routes -->
    <route id="r_3" edges="E0" color="0,128,128"/>
    <!-- Vehicles, persons and containers (sorted by depart) -->
    <trip id="t_0" depart="0.00" from="E0" to="E0"/>
    <vehicle id="v_0" depart="0.00" route="r_3"/>
</routes>
