<?xml version="1.0" encoding="UTF-8"?>
<nodes>
    <node id="n1" x="-500" y="0" type="priority"/>
    <node id="n2" x="-250" y="0" type="traffic_light"/>
    <node id="n3" x="-150" y="0" type="traffic_light"/>
    <node id="n4" x="0" y="0"/>
    <node id="n5" x="150" y="200"/>
    <node id="n6" x="-500" y="-200"/>
    <node id="n7" x="750" y="0"/>

</nodes>
